example/data/d_npcc140_ind_zip.m
% Modified NPCC 140-bus system, replaced syncornous generators with PV buses, and added induction motors and ZIP load model

% Original NPCC 140-bus system can be found at
% https://github.com/cuihantao/andes

%bus data: 140
Bus.con = [...
   1     1.0000     1.0111     0.0866    1    1
   2     1.0000     1.0067     0.0727    1    1
   3     1.0000     1.0470     0.0719    1    1
   4     1.0000     1.0076     0.0735    1    1
   5     1.0000     1.0038     0.0427    1    1
   6     1.0000     1.0070     0.0338    1    1
   7     1.0000     1.0233     0.0580    1    1
   8     1.0000     1.0226     0.0361    1    1
   9     1.0000     1.0182     0.0201    1    1
  10     1.0000     1.0420     0.1391    1    1
  11     1.0000     0.9841     0.1133    1    1
  12     1.0000     1.0251     0.1047    1    1
  13     1.0000     1.0458     0.1872    1    1
  14     1.0000     1.0400     0.1821    1    1
  15     1.0000     1.0292     0.0611    1    1
  16     1.0000     1.0394     0.0796    1    1
  17     1.0000     1.0398     0.0585    1    1
  18     1.0000     1.0260     0.0276    1    1
  19     1.0000     1.0408     0.1143    1    1
  20     1.0000     1.0416     0.1610    1    1
  21     1.0000     0.9800     0.2274    1    1
  22     1.0000     0.9900     0.2315    1    1
  23     1.0000     1.0066     0.2041    1    1
  24     1.0000     1.0500     0.2808    1    1
  25     1.0000     1.0600     0.3203    1    1
  26     1.0000     1.0200     0.2815    1    1
  27     1.0000     1.0200     0.2007    1    1
  28     1.0000     1.0507     0.0583    1    1
  29     1.0000     1.0251     0.0583    1    1
  30     1.0000     1.0147     0.0142    1    1
  31     1.0000     0.9947     0.0084    1    1
  32     1.0000     0.9992     0.0338    1    1
  33     1.0000     1.0019     0.0461    1    1
  34     1.0000     0.9918     0.0101    1    1
  35     1.0000     0.9911     0.0026    1    1
  36     1.0000     0.9800     0.1952    1    1
  37     1.0000     1.0360     0.0837    1    1
  38     1.0000     1.0355     0.1252    1    1
  39     1.0000     1.0349     0.0595    1    1
  40     1.0000     1.0018     0.0122    1    1
  41     1.0000     1.0347    -0.0548    1    1
  42     1.0000     1.0400    -0.0392    1    1
  43     1.0000     1.0438     0.1508    1    1
  44     1.0000     1.0401     0.1198    1    1
  45     1.0000     1.0379     0.0740    1    1
  46     1.0000     1.0433     0.1160    1    1
  47     1.0000     1.0300     0.2126    1    1
  48     1.0000     1.0500     0.2714    1    1
  49     1.0000     0.9435    -0.0164    1    1
  50     1.0000     1.0500     0.2364    1    1
  51     1.0000     1.0400     0.1540    1    1
  52     1.0000     1.0405     0.3465    1    1
  53     1.0000     1.0300     0.3218    1    1
  54     1.0000     1.0408     0.4802    1    1
  55     1.0000     1.0400     0.4679    1    1
  56     1.0000     1.0300     0.4786    1    1
  57     1.0000     1.0300     0.4604    1    1
  58     1.0000     1.0020     0.4380    1    1
  59     1.0000     1.0232     0.3975    1    1
  60     1.0000     1.0400     0.5377    1    1
  61     1.0000     1.0400     0.4799    1    1
  62     1.0000     1.0104     0.4269    1    1
  63     1.0000     1.0028     0.3135    1    1
  64     1.0000     1.0055     0.2595    1    1
  65     1.0000     1.0400     0.2813    1    1
  66     1.0000     1.0193     0.3663    1    1
  67     1.0000     1.0021     0.2939    1    1
  68     1.0000     0.9900     0.2255    1    1
  69     1.0000     1.0178     0.2533    1    1
  70     1.0000     0.9987     0.2401    1    1
  71     1.0000     1.0000     0.1978    1    1
  72     1.0000     1.0500     0.1810    1    1
  73     1.0000     1.0295     0.0298    1    1
  74     1.0000     1.0268     0.0054    1    1
  75     1.0000     1.0425     0.0214    1    1
  76     1.0000     1.0485     0.0133    1    1
  77     1.0000     1.0360     0.0096    1    1
  78     1.0000     1.0200     0.0000    1    1
  79     1.0000     1.0500     0.1426    1    1
  80     1.0000     1.0232     0.0110    1    1
  81     1.0000     1.0208    -0.0578    1    1
  82     1.0000     1.0500     0.1321    1    1
  83     1.0000     1.0098     0.4055    1    1
  84     1.0000     1.0138     0.4139    1    1
  85     1.0000     1.0797     0.6115    1    1
  86     1.0000     1.0000     0.7053    1    1
  87     1.0000     1.0196     0.5754    1    1
  88     1.0000     1.0514     0.5580    1    1
  89     1.0000     1.0184     0.5174    1    1
  90     1.0000     1.0127     0.5157    1    1
  91     1.0000     1.0400     0.2139    1    1
  92     1.0000     1.0400     0.3446    1    1
  93     1.0000     0.9766     0.1529    1    1
  94     1.0000     0.9770     0.1572    1    1
  95     1.0000     0.9789     0.2738    1    1
  96     1.0000     1.0260     0.2837    1    1
  97     1.0000     1.0400     0.2639    1    1
  98     1.0000     1.0400     0.5715    1    1
  99     1.0000     1.0396     0.5596    1    1
 100     1.0000     1.0428     0.4693    1    1
 101     1.0000     1.0500     0.4382    1    1
 102     1.0000     1.0211     0.4581    1    1
 103     1.0000     1.0117     0.4548    1    1
 104     1.0000     1.0066     0.2468    1    1
 105     1.0000     1.0317     0.4250    1    1
 106     1.0000     1.0090     0.2710    1    1
 107     1.0000     1.0188     0.2936    1    1
 108     1.0000     1.0099     0.2596    1    1
 109     1.0000     1.0099     0.2592    1    1
 110     1.0000     1.0108     0.2343    1    1
 111     1.0000     0.9830     0.1954    1    1
 112     1.0000     1.0485     0.5085    1    1
 113     1.0000     1.0107     0.3974    1    1
 114     1.0000     1.0059     0.5249    1    1
 115     1.0000     1.0200     0.5725    1    1
 116     1.0000     1.0071     0.4619    1    1
 117     1.0000     1.0062     0.5288    1    1
 118     1.0000     1.0003     0.5455    1    1
 119     1.0000     1.0000     0.5182    1    1
 120     1.0000     1.0200     0.4564    1    1
 121     1.0000     1.0400     0.5652    1    1
 122     1.0000     1.0500     0.5569    1    1
 123     1.0000     1.0100     0.6471    1    1
 124     1.0000     1.0417     0.0409    1    1
 125     1.0000     1.0207    -0.0601    1    1
 126     1.0000     1.0208    -0.0950    1    1
 127     1.0000     1.0463     0.1139    1    1
 128     1.0000     1.0375     0.0470    1    1
 129     1.0000     1.0229     0.1554    1    1
 130     1.0000     1.0200     0.2122    1    1
 131     1.0000     1.0261     0.2333    1    1
 132     1.0000     1.0393     0.3410    1    1
 133     1.0000     1.0200     0.5988    1    1
 134     1.0000     1.0300     0.4475    1    1
 135     1.0000     1.0200     0.6102    1    1
 136     1.0000     1.0006     0.3441    1    1
 137     1.0000     1.0400     0.3547    1    1
 138     1.0000     0.9700     0.2386    1    1
 139     1.0000     1.0100     0.5090    1    1
 140     1.0000     1.0413     0.5375    1    1
];

%SW data: 1
SW.con = [...
  78   100.0000     1.0000     1.0200     0.0000     9.9900    -9.9900     1.1000     0.9000     6.3210     1.0000    1    1
];

%PV data: 45
PV.con = [...
  21   100.0000     1.0000     6.5000     0.9800     9.9900    -9.9900     1.1000     0.9000     1.0000    1
  22   100.0000     1.0000     6.3200     0.9900     9.9900    -9.9900     1.1000     0.9000     1.0000    1
  23   100.0000     1.0000     5.0300     1.0066    19.9800   -19.9800     1.1000     0.9000     1.0000    1
  24   100.0000     1.0000     7.0000     1.0500     9.9900    -9.9900     1.1000     0.9000     1.0000    1
  25   100.0000     1.0000     5.6000     1.0600     9.9900    -9.9900     1.1000     0.9000     1.0000    1
  26   100.0000     1.0000     8.0000     1.0200     9.9900    -9.9900     1.1000     0.9000     1.0000    1
  27   100.0000     1.0000     5.4000     1.0200     9.9900    -9.9900     1.1000     0.9000     1.0000    1
  36   100.0000     1.0000     5.5400     0.9800     9.9900    -9.9900     1.1000     0.9000     1.0000    1
  42   100.0000     1.0000     3.7000     1.0400     9.9900    -9.9900     1.1000     0.9000     1.0000    1
  47   100.0000     1.0000     4.0000     1.0300     9.9900    -9.9900     1.1000     0.9000     1.0000    1
  48   100.0000     1.0000     4.0000     1.0500     9.9900    -9.9900     1.1000     0.9000     1.0000    1
  50   100.0000     1.0000     6.0000     1.0500     9.9900    -9.9900     1.1000     0.9000     1.0000    1
  51   100.0000     1.0000     1.4100     1.0400     9.9900    -9.9900     1.1000     0.9000     1.0000    1
  53   100.0000     1.0000     8.3300     1.0300     9.9900    -9.9900     1.1000     0.9000     1.0000    1
  54   100.0000     1.0000    11.1500     1.0408    19.9800   -19.9800     1.1000     0.9000     1.0000    1
  55   100.0000     1.0000    10.9500     1.0400     9.9900    -9.9900     1.1000     0.9000     1.0000    1
  56   100.0000     1.0000     4.1000     1.0300     9.9900    -9.9900     1.1000     0.9000     1.0000    1
  57   100.0000     1.0000     2.9800     1.0300     9.9900    -9.9900     1.1000     0.9000     1.0000    1
  60   100.0000     1.0000     4.1000     1.0400     9.9900    -9.9900     1.1000     0.9000     1.0000    1
  61   100.0000     1.0000     1.9400     1.0400     9.9900    -9.9900     1.1000     0.9000     1.0000    1
  65   100.0000     1.0000     0.9100     1.0400     9.9900    -9.9900     1.1000     0.9000     1.0000    1
  68   100.0000     1.0000     0.6600     0.9900     9.9900    -9.9900     1.1000     0.9000     1.0000    1
  71   100.0000     1.0000     1.3400     1.0000     9.9900    -9.9900     1.1000     0.9000     1.0000    1
  72   100.0000     1.0000     1.5000     1.0500     9.9900    -9.9900     1.1000     0.9000     1.0000    1
  79   100.0000     1.0000    10.0000     1.0500     9.9900    -9.9900     1.1000     0.9000     1.0000    1
  80   100.0000     1.0000     7.2000     1.0232     9.9900    -9.9900     1.1000     0.9000     1.0000    1
  82   100.0000     1.0000     4.6000     1.0500     9.9900    -9.9900     1.1000     0.9000     1.0000    1
  86   100.0000     1.0000    16.5000     1.0000     9.9900    -9.9900     1.1000     0.9000     1.0000    1
  91   100.0000     1.0000     9.3000     1.0400     9.9900    -9.9900     1.1000     0.9000     1.0000    1
  92   100.0000     1.0000     4.5000     1.0400     9.9900    -9.9900     1.1000     0.9000     1.0000    1
  97   100.0000     1.0000     6.0000     1.0400     9.9900    -9.9900     1.1000     0.9000     1.0000    1
  98   100.0000     1.0000     5.8500     1.0400     9.9900    -9.9900     1.1000     0.9000     1.0000    1
 101   100.0000     1.0000    12.0000     1.0500     9.9900    -9.9900     1.1000     0.9000     1.0000    1
 115   100.0000     1.0000     5.5000     1.0200     9.9900    -9.9900     1.1000     0.9000     1.0000    1
 119   100.0000     1.0000     5.5000     1.0000     9.9900    -9.9900     1.1000     0.9000     1.0000    1
 120   100.0000     1.0000     7.0000     1.0200     9.9900    -9.9900     1.1000     0.9000     1.0000    1
 121   100.0000     1.0000     1.4500     1.0400     9.9900    -9.9900     1.1000     0.9000     1.0000    1
 122   100.0000     1.0000     1.5500     1.0500     9.9900    -9.9900     1.1000     0.9000     1.0000    1
 123   100.0000     1.0000     6.5500     1.0100     9.9900    -9.9900     1.1000     0.9000     1.0000    1
 130   100.0000     1.0000     4.9000     1.0200     9.9900    -9.9900     1.1000     0.9000     1.0000    1
 133   100.0000     1.0000    17.0000     1.0200     9.9900    -9.9900     1.1000     0.9000     1.0000    1
 134   100.0000     1.0000     8.8000     1.0300     9.9900    -9.9900     1.1000     0.9000     1.0000    1
 135   100.0000     1.0000    23.3000     1.0200     9.9900    -9.9900     1.1000     0.9000     1.0000    1
 137   100.0000     1.0000     0.7000     1.0400     9.9900    -9.9900     1.1000     0.9000     1.0000    1
 139   100.0000     1.0000     1.1500     1.0100     9.9900    -9.9900     1.1000     0.9000     1.0000    1
];

%PQ data: 83
PQ.con = [...
   3   100.0000     1.0000     0.0374     0.6260     1.1000     0.9000    0    1
   6   100.0000     1.0000     1.8199     0.8865     1.1000     0.9000    0    1
   7   100.0000     1.0000     1.2054    -0.1033     1.1000     0.9000    0    1
   9   100.0000     1.0000     0.8651     0.1604     1.1000     0.9000    0    1
  11   100.0000     1.0000     1.8390     0.0917     1.1000     0.9000    0    1
  12   100.0000     1.0000     1.3981     0.5891     1.1000     0.9000    0    1
  14   100.0000     1.0000     1.1293     0.3983     1.1000     0.9000    0    1
  15   100.0000     1.0000     3.0900    -0.9200     1.1000     0.9000    0    1
  16   100.0000     1.0000     0.7026     0.1088     1.1000     0.9000    0    1
  17   100.0000     1.0000     0.1655    -0.0169     1.1000     0.9000    0    1
  18   100.0000     1.0000     1.6033     0.4277     1.1000     0.9000    0    1
  19   100.0000     1.0000     0.4399    -0.1791     1.1000     0.9000    0    1
  20   100.0000     1.0000     0.8027     0.0360     1.1000     0.9000    0    1
  30   100.0000     1.0000     0.4253    -0.2663     1.1000     0.9000    0    1
  31   100.0000     1.0000     3.8883     1.4852     1.1000     0.9000    0    1
  34   100.0000     1.0000     1.2874     0.4676     1.1000     0.9000    0    1
  35   100.0000     1.0000     1.7547     0.6359     1.1000     0.9000    0    1
  36   100.0000     1.0000     0.0543     0.0379     1.1000     0.9000    0    1
  41   100.0000     1.0000     4.4711     0.5395     1.1000     0.9000    0    1
  42   100.0000     1.0000     0.5349    -0.0709     1.1000     0.9000    0    1
  45   100.0000     1.0000     0.9288    -0.0427     1.1000     0.9000    0    1
  46   100.0000     1.0000     0.2300    -0.4250     1.1000     0.9000    0    1
  47   100.0000     1.0000     2.0411     0.7612     1.1000     0.9000    0    1
  49   100.0000     1.0000     0.7024     0.1481     1.1000     0.9000    0    1
  51   100.0000     1.0000     5.6047     0.5900     1.1000     0.9000    0    1
  53   100.0000     1.0000     5.1305     1.2898     1.1000     0.9000    0    1
  54   100.0000     1.0000     0.2000     0.0000     1.1000     0.9000    0    1
  55   100.0000     1.0000     4.5453     0.4459     1.1000     0.9000    0    1
  56   100.0000     1.0000     1.0860     0.3587     1.1000     0.9000    0    1
  57   100.0000     1.0000     2.4000    -0.0600     1.1000     0.9000    0    1
  58   100.0000     1.0000     0.2516     0.1633     1.1000     0.9000    0    1
  59   100.0000     1.0000     1.4147     1.1883     1.1000     0.9000    0    1
  61   100.0000     1.0000     1.4290    -0.0318     1.1000     0.9000    0    1
  64   100.0000     1.0000     0.4122     0.0573     1.1000     0.9000    0    1
  65   100.0000     1.0000     0.9100     0.0000     1.1000     0.9000    0    1
  68   100.0000     1.0000     1.4845     0.1516     1.1000     0.9000    0    1
  71   100.0000     1.0000     0.7950    -0.2574     1.1000     0.9000    0    1
  74   100.0000     1.0000     1.0200     0.0000     1.1000     0.9000    0    1
  78   100.0000     1.0000    14.0596     4.2674     1.1000     0.9000    0    1
  80   100.0000     1.0000     2.7178    -0.4736     1.1000     0.9000    0    1
  83   100.0000     1.0000     0.4350     0.0678     1.1000     0.9000    0    1
  85   100.0000     1.0000     0.1800     0.0000     1.1000     0.9000    0    1
  86   100.0000     1.0000     0.1176     0.0677     1.1000     0.9000    0    1
  88   100.0000     1.0000     0.4921     0.2702     1.1000     0.9000    0    1
  89   100.0000     1.0000     0.4573     0.3780     1.1000     0.9000    0    1
  90   100.0000     1.0000     0.2140     0.1109     1.1000     0.9000    0    1
  91   100.0000     1.0000     9.1212     2.9249     1.1000     0.9000    0    1
  92   100.0000     1.0000     0.0485     1.9726     1.1000     0.9000    0    1
  93   100.0000     1.0000     1.2500     0.0000     1.1000     0.9000    0    1
  94   100.0000     1.0000     0.9500     0.0000     1.1000     0.9000    0    1
  95   100.0000     1.0000    -1.0000     0.8700     1.1000     0.9000    0    1
  96   100.0000     1.0000    -0.4000    -0.2500     1.1000     0.9000    0    1
  97   100.0000     1.0000     1.1423    -0.8103     1.1000     0.9000    0    1
 101   100.0000     1.0000     2.6964     0.9790     1.1000     0.9000    0    1
 104   100.0000     1.0000     0.2379     0.1133     1.1000     0.9000    0    1
 105   100.0000     1.0000     3.2500     0.0000     1.1000     0.9000    0    1
 106   100.0000     1.0000     0.0000    -0.1200     1.1000     0.9000    0    1
 107   100.0000     1.0000     0.0000    -0.1900     1.1000     0.9000    0    1
 108   100.0000     1.0000     0.0000    -0.1300     1.1000     0.9000    0    1
 109   100.0000     1.0000     0.0000    -0.1300     1.1000     0.9000    0    1
 110   100.0000     1.0000     4.7930     0.7293     1.1000     0.9000    0    1
 111   100.0000     1.0000     1.3287     0.0800     1.1000     0.9000    0    1
 113   100.0000     1.0000     2.0600     0.0000     1.1000     0.9000    0    1
 114   100.0000     1.0000     0.0000     0.9000     1.1000     0.9000    0    1
 115   100.0000     1.0000     1.0000     0.0000     1.1000     0.9000    0    1
 116   100.0000     1.0000     2.0000     0.0000     1.1000     0.9000    0    1
 117   100.0000     1.0000     1.5580     0.4263     1.1000     0.9000    0    1
 118   100.0000     1.0000     0.9168     0.2311     1.1000     0.9000    0    1
 119   100.0000     1.0000     4.1046     1.0853     1.1000     0.9000    0    1
 120   100.0000     1.0000     9.4600    -0.4000     1.1000     0.9000    0    1
 123   100.0000     1.0000     0.2305     0.0263     1.1000     0.9000    0    1
 124   100.0000     1.0000     0.8591    -0.2025     1.1000     0.9000    0    1
 125   100.0000     1.0000     2.5169    -0.0211     1.1000     0.9000    0    1
 126   100.0000     1.0000     4.5000     0.0000     1.1000     0.9000    0    1
 127   100.0000     1.0000     2.0000    -1.5000     1.1000     0.9000    0    1
 128   100.0000     1.0000     9.7000    -1.0200     1.1000     0.9000    0    1
 129   100.0000     1.0000     6.1000    -0.5000     1.1000     0.9000    0    1
 130   100.0000     1.0000     1.8000     0.0000     1.1000     0.9000    0    1
 131   100.0000     1.0000    11.6000    -4.3200     1.1000     0.9000    0    1
 132   100.0000     1.0000     2.1000    -3.3700     1.1000     0.9000    0    1
 135   100.0000     1.0000     1.7000     0.0000     1.1000     0.9000    0    1
 136   100.0000     1.0000     2.0015     1.7037     1.1000     0.9000    0    1
 138   100.0000     1.0000     0.1294     0.1385     1.1000     0.9000    0    1
];

%Shunt data: 12
Shunt.con = [...
  41   100.0000     1.0000    60.0000     0.0000     0.2500    1
  45   100.0000     1.0000    60.0000     0.0000     0.2500    1
  47   100.0000     1.0000    60.0000     0.0000     0.6000    1
  48   100.0000     1.0000    60.0000     0.0000    -0.0100    1
  49   100.0000     1.0000    60.0000     0.0000     0.1000    1
  51   100.0000     1.0000    60.0000     0.0000     0.2500    1
  54   100.0000     1.0000    60.0000     0.0000    -1.1200    1
  55   100.0000     1.0000    60.0000     0.0000     0.0200    1
  56   100.0000     1.0000    60.0000     0.0000     0.0600    1
  58   100.0000     1.0000    60.0000     0.0000     0.0200    1
  59   100.0000     1.0000    60.0000     0.0000     0.5000    1
  61   100.0000     1.0000    60.0000     0.0000     0.0400    1
];

%Line Data: 233
Line.con = [...
   2    1 100.00000   1.00000  60.00000    0   0.00000   0.00040   0.00430   0.07000   1.00000   0.00000   5.17580   0.00000   0.00000   1.00000 
   2   33 100.00000   1.00000  60.00000    0   0.00000   0.00070   0.00820   0.14000   1.00000   0.00000   7.96670   0.00000   0.00000   1.00000 
   4    1 100.00000   1.00000  60.00000    0   0.00000   0.00040   0.00430   0.07000   1.00000   0.00000   4.84110   0.00000   0.00000   1.00000 
   5    4 100.00000   1.00000  60.00000    0   0.00000   0.00090   0.01010   0.17000   1.00000   0.00000   3.53820   0.00000   0.00000   1.00000 
   5   31 100.00000   1.00000  60.00000    0   0.00000   0.00080   0.01290   0.14000   1.00000   0.00000   7.83630   0.00000   0.00000   1.00000 
   6    5 100.00000   1.00000  60.00000    0   0.00000   0.00180   0.02170   0.37000   1.00000   0.00000   1.25280   0.00000   0.00000   1.00000 
   7    6 100.00000   1.00000  60.00000    0   0.00000   0.00090   0.00940   0.17000   1.00000   0.00000   4.17970   0.00000   0.00000   1.00000 
   8    7 100.00000   1.00000  60.00000    0   0.00000   0.00070   0.00890   0.13000   1.00000   0.00000   5.64530   0.00000   0.00000   1.00000 
   9    8 100.00000   1.00000  60.00000    0   0.00000   0.00070   0.00820   0.13000   1.00000   0.00000   3.62360   0.00000   0.00000   1.00000 
   9   30 100.00000   1.00000  60.00000    0   0.00000   0.00110   0.01330   0.21000   1.00000   0.00000   0.41410   0.00000   0.00000   1.00000 
  10    7 100.00000   1.00000  60.00000    0   0.00000   0.00160   0.01950   0.30000   1.00000   0.00000   2.50470   0.00000   0.00000   1.00000 
  12    7 100.00000   1.00000  60.00000    0   0.00000   0.00080   0.01350   0.25000   1.00000   0.00000   6.97030   0.00000   0.00000   1.00000 
  13   12 100.00000   1.00000  60.00000    0   0.00000   0.00080   0.01400   0.26000   1.00000   0.00000   8.35820   0.00000   0.00000   1.00000 
  14   13 100.00000   1.00000  60.00000    0   0.00000   0.00060   0.00960   0.18000   1.00000   0.00000   1.23970   0.00000   0.00000   1.00000 
  15    7 100.00000   1.00000  60.00000    0   0.00000   0.00030   0.00590   0.07000   1.00000   0.00000   1.54840   0.00000   0.00000   1.00000 
  15   14 100.00000   1.00000  60.00000    0   0.00000   0.00220   0.03500   0.36000   1.00000   0.00000   3.62110   0.00000   0.00000   1.00000 
  16   29 100.00000   1.00000  60.00000    0   0.00000   0.00700   0.00860   0.15000   1.00000   0.00000   4.01490   0.00000   0.00000   1.00000 
  17   16 100.00000   1.00000  60.00000    0   0.00000   0.00320   0.03230   0.53000   1.00000   0.00000   1.87990   0.00000   0.00000   1.00000 
  18    8 100.00000   1.00000  60.00000    0   0.00000   0.00130   0.01730   0.32000   1.00000   0.00000   0.62220   0.00000   0.00000   1.00000 
  18   17 100.00000   1.00000  60.00000    0   0.00000   0.00140   0.01470   0.24000   1.00000   0.00000   5.88860   0.00000   0.00000   1.00000 
  19   17 100.00000   1.00000  60.00000    0   0.00000   0.00430   0.04740   0.78000   1.00000   0.00000   2.32840   0.00000   0.00000   1.00000 
  20   17 100.00000   1.00000  60.00000    0   0.00000   0.00570   0.06250   1.03000   1.00000   0.00000   3.15910   0.00000   0.00000   1.00000 
  20   19 100.00000   1.00000  60.00000    0   0.00000   0.00140   0.01510   0.25000   1.00000   0.00000   3.29440   0.00000   0.00000   1.00000 
  30   29 100.00000   1.00000  60.00000    0   0.00000   0.00130   0.01510   0.26000   1.00000   0.00000   3.28920   0.00000   0.00000   1.00000 
  31   30 100.00000   1.00000  60.00000    0   0.00000   0.00130   0.02130   0.22000   1.00000   0.00000   2.28750   0.00000   0.00000   1.00000 
  32   31 100.00000   1.00000  60.00000    0   0.00000   0.00080   0.01280   0.13000   1.00000   0.00000   2.62440   0.00000   0.00000   1.00000 
  33   32 100.00000   1.00000  60.00000    0   0.00000   0.00020   0.00260   0.04000   1.00000   0.00000  10.54340   0.00000   0.00000   1.00000 
  34   33 100.00000   1.00000  60.00000    0   0.00000   0.00060   0.00920   0.11000   1.00000   0.00000  13.49600   0.00000   0.00000   1.00000 
  35   32 100.00000   1.00000  60.00000    0   0.00000   0.00080   0.01120   0.15000   1.00000   0.00000   7.55570   0.00000   0.00000   1.00000 
  35   34 100.00000   1.00000  60.00000    0   0.00000   0.00040   0.00460   0.08000   1.00000   0.00000   4.09770   0.00000   0.00000   1.00000 
  37   29 100.00000   1.00000  60.00000    0   0.00000   0.00350   0.04110   0.70000   1.00000   0.00000   2.58840   0.00000   0.00000   1.00000 
  38   37 100.00000   1.00000  60.00000    0   0.00000   0.00160   0.01630   0.25000   1.00000   0.00000   7.41220   0.00000   0.00000   1.00000 
  39   37 100.00000   1.00000  60.00000    0   0.00000   0.00080   0.00740   0.48000   1.00000   0.00000   7.85490   0.00000   0.00000   1.00000 
  40   37 100.00000   1.00000  60.00000    0   0.00000   0.00090   0.03150   0.06000   1.00000   0.00000   8.53470   0.00000   0.00000   1.00000 
  42   41 100.00000   1.00000  60.00000    0   0.00000   0.00180   0.00890   0.07000   1.00000   0.00000   1.27010   0.00000   0.00000   1.00000 
  43   37 100.00000   1.00000  60.00000    0   0.00000   0.00130   0.01880   1.31000   1.00000   0.00000   4.91820   0.00000   0.00000   1.00000 
  44   40 100.00000   1.00000  60.00000    0   0.00000   0.00800   0.05300   0.40000   1.00000   0.00000   7.49620   0.00000   0.00000   1.00000 
  44   43 100.00000   1.00000  60.00000    0   0.00000   0.00000   0.01100   0.00000   1.00000   0.00000   8.34330   0.00000   0.00000   1.00000 
  45   41 100.00000   1.00000  60.00000    0   0.00000   0.07760   0.22410   0.13000   1.00000   0.00000   1.08210   0.00000   0.00000   1.00000 
  45   44 100.00000   1.00000  60.00000    0   0.00000   0.00000   0.02050   0.00000   1.00000   0.00000   5.90950   0.00000   0.00000   1.00000 
  46   45 100.00000   1.00000  60.00000    0   0.00000   0.12350   0.35480   0.16000   1.00000   0.00000   0.24810   0.00000   0.00000   1.00000 
  47   46 100.00000   1.00000  60.00000    0   0.00000   0.06320   0.12100   0.05000   1.00000   0.00000   1.21250   0.00000   0.00000   1.00000 
  48   44 100.00000   1.00000  60.00000    0   0.00000   0.01500   0.10500   0.79000   1.00000   0.00000   1.73330   0.00000   0.00000   1.00000 
  48   47 100.00000   1.00000  60.00000    0   0.00000   0.00000   0.03300   0.00000   1.00000   0.00000   3.21110   0.00000   0.00000   1.00000 
  49   46 100.00000   1.00000  60.00000    0   0.00000   0.16400   0.57800   0.06000   1.00000   0.00000   0.16100   0.00000   0.00000   1.00000 
  50   43 100.00000   1.00000  60.00000    0   0.00000   0.00250   0.02680   0.40000   1.00000   0.00000   6.38710   0.00000   0.00000   1.00000 
  50   43 100.00000   1.00000  60.00000    0   0.00000   0.00250   0.02680   0.40000   1.00000   0.00000   4.99830   0.00000   0.00000   1.00000 
  51   45 100.00000   1.00000  60.00000    0   0.00000   0.06050   0.18960   0.08000   1.00000   0.00000   1.43320   0.00000   0.00000   1.00000 
  51   50 100.00000   1.00000  60.00000    0   0.00000   0.00000   0.02070   0.00000   1.00000   0.00000   9.06990   0.00000   0.00000   1.00000 
  52   50 100.00000   1.00000  60.00000    0   0.00000   0.00200   0.02200   1.28000   1.00000   0.00000  15.88740   0.00000   0.00000   1.00000 
  53   51 100.00000   1.00000  60.00000    0   0.00000   0.08440   0.21610   0.22000   1.00000   0.00000   1.28850   0.00000   0.00000   1.00000 
  53   52 100.00000   1.00000  60.00000    0   0.00000   0.00140   0.03880   0.00000   1.00000   0.00000   1.34150   0.00000   0.00000   1.00000 
  55   53 100.00000   1.00000  60.00000    0   0.00000   0.03000   0.10700   0.30000   1.00000   0.00000   4.05110   0.00000   0.00000   1.00000 
  56   54 100.00000   1.00000  60.00000    0   0.00000   0.01000   0.00800   0.07000   1.00000   0.00000   2.96490   0.00000   0.00000   1.00000 
  57   55 100.00000   1.00000  60.00000    0   0.00000   0.00740   0.04000   0.02000   1.00000   0.00000   0.64600   0.00000   0.00000   1.00000 
  58   56 100.00000   1.00000  60.00000    0   0.00000   0.00200   0.01500   0.11000   1.00000   0.00000  10.78350   0.00000   0.00000   1.00000 
  59   55 100.00000   1.00000  60.00000    0   0.00000   0.01600   0.08170   0.04000   1.00000   0.00000   2.43040   0.00000   0.00000   1.00000 
  59   57 100.00000   1.00000  60.00000    0   0.00000   0.01400   0.06800   0.03000   1.00000   0.00000   2.05680   0.00000   0.00000   1.00000 
  60   58 100.00000   1.00000  60.00000    0   0.00000   0.00350   0.03440   0.27000   1.00000   0.00000  10.67740   0.00000   0.00000   1.00000 
  61   59 100.00000   1.00000  60.00000    0   0.00000   0.06800   0.14300   0.06000   1.00000   0.00000   1.62450   0.00000   0.00000   1.00000 
  62   54 100.00000   1.00000  60.00000    0   0.00000   0.00800   0.06900   0.13000   1.00000   0.00000   3.04470   0.00000   0.00000   1.00000 
  62   58 100.00000   1.00000  60.00000    0   0.00000   0.00200   0.01800   0.03000   1.00000   0.00000   1.88430   0.00000   0.00000   1.00000 
  63   62 100.00000   1.00000  60.00000    0   0.00000   0.01290   0.08030   0.15000   1.00000   0.00000   2.29880   0.00000   0.00000   1.00000 
  64   63 100.00000   1.00000  60.00000    0   0.00000   0.00000   0.04600   0.00000   1.00000   0.00000   2.27710   0.00000   0.00000   1.00000 
  65   53 100.00000   1.00000  60.00000    0   0.00000   0.03500   0.08000   0.05000   1.00000   0.00000   1.59860   0.00000   0.00000   1.00000 
  65   64 100.00000   1.00000  60.00000    0   0.00000   0.03500   0.08000   0.05000   1.00000   0.00000   0.25570   0.00000   0.00000   1.00000 
  67   63 100.00000   1.00000  60.00000    0   0.00000   0.01200   0.09300   0.18000   1.00000   0.00000   0.22110   0.00000   0.00000   1.00000 
  67   66 100.00000   1.00000  60.00000    0   0.00000   0.00000   0.02310   0.00000   1.00000   0.00000   6.23480   0.00000   0.00000   1.00000 
  68   64 100.00000   1.00000  60.00000    0   0.00000   0.09880   0.23100   0.13000   1.00000   0.00000   0.34280   0.00000   0.00000   1.00000 
  68   67 100.00000   1.00000  60.00000    0   0.00000   0.00000   0.04900   0.00000   1.00000   0.00000   0.95770   0.00000   0.00000   1.00000 
  69   38 100.00000   1.00000  60.00000    0   0.00000   0.00430   0.04850   0.79000   1.00000   0.00000   6.74390   0.00000   0.00000   1.00000 
  69   66 100.00000   1.00000  60.00000    0   0.00000   0.00180   0.02740   0.27000   1.00000   0.00000  13.26640   0.00000   0.00000   1.00000 
  70   67 100.00000   1.00000  60.00000    0   0.00000   0.00700   0.06190   0.12000   1.00000   0.00000   0.71760   0.00000   0.00000   1.00000 
  71   45 100.00000   1.00000  60.00000    0   0.00000   0.17510   0.55750   0.12000   1.00000   0.00000   0.41220   0.00000   0.00000   1.00000 
  71   68 100.00000   1.00000  60.00000    0   0.00000   0.12030   0.20480   0.07000   1.00000   0.00000   0.16780   0.00000   0.00000   1.00000 
  71   69 100.00000   1.00000  60.00000    0   0.00000   0.00000   0.03750   0.00000   1.00000   0.00000   5.40880   0.00000   0.00000   1.00000 
  71   70 100.00000   1.00000  60.00000    0   0.00000   0.00000   0.04900   0.00000   1.00000   0.00000   2.00680   0.00000   0.00000   1.00000 
  72   51 100.00000   1.00000  60.00000    0   0.00000   0.00510   0.02320   0.30000   1.00000   0.00000   1.59680   0.00000   0.00000   1.00000 
  72   71 100.00000   1.00000  60.00000    0   0.00000   0.00530   0.01350   0.10000   1.00000   0.00000   3.27370   0.00000   0.00000   1.00000 
  73   35 100.00000   1.00000  60.00000    0   0.00000   0.00230   0.03630   0.38000   1.00000   0.00000   2.77670   0.00000   0.00000   1.00000 
  73   39 100.00000   1.00000  60.00000    0   0.00000   0.00190   0.01830   0.29000   1.00000   0.00000   5.05140   0.00000   0.00000   1.00000 
  73   39 100.00000   1.00000  60.00000    0   0.00000   0.00190   0.01830   0.29000   1.00000   0.00000   5.09810   0.00000   0.00000   1.00000 
  74   73 100.00000   1.00000  60.00000    0   0.00000   0.00220   0.01960   0.34000   1.00000   0.00000   3.87680   0.00000   0.00000   1.00000 
  74   73 100.00000   1.00000  60.00000    0   0.00000   0.00220   0.01960   0.34000   1.00000   0.00000   1.43590   0.00000   0.00000   1.00000 
  77   74 100.00000   1.00000  60.00000    0   0.00000   0.00030   0.00430   0.08000   1.00000   0.00000   5.05260   0.00000   0.00000   1.00000 
  77   76 100.00000   1.00000  60.00000    0   0.00000   0.00300   0.00680   1.37000   1.00000   0.00000   5.67520   0.00000   0.00000   1.00000 
  78   74 100.00000   1.00000  60.00000    0   0.00000   0.00050   0.00450   0.32000   1.00000   0.00000   1.67190   0.00000   0.00000   1.00000 
  78   74 100.00000   1.00000  60.00000    0   0.00000   0.00050   0.00450   0.32000   1.00000   0.00000   5.94560   0.00000   0.00000   1.00000 
  79   78 100.00000   1.00000  60.00000    0   0.00000   0.00030   0.01530   0.00000   1.00000   0.00000  31.46260   0.00000   0.00000   1.00000 
  80   78 100.00000   1.00000  60.00000    0   0.00000   0.01350   0.05820   0.50000   1.00000   0.00000   0.37010   0.00000   0.00000   1.00000 
  81   78 100.00000   1.00000  60.00000    0   0.00000   0.00050   0.02760   0.00000   1.00000   0.00000   1.56260   0.00000   0.00000   1.00000 
  82   78 100.00000   1.00000  60.00000    0   0.00000   0.00050   0.03080   0.00000   1.00000   0.00000   8.72890   0.00000   0.00000   1.00000 
  83  112 100.00000   1.00000  60.00000    0   0.00000   0.01850   0.15370   0.00000   1.00000   0.00000   2.18980   0.00000   0.00000   1.00000 
  83  113 100.00000   1.00000  60.00000    0   0.00000   0.00370   0.02020   0.00000   1.00000   0.00000   0.76920   0.00000   0.00000   1.00000 
  85  105 100.00000   1.00000  60.00000    0   0.00000   0.01000   0.10900   0.18000   1.00000   0.00000   3.20600   0.00000   0.00000   1.00000 
  85  105 100.00000   1.00000  60.00000    0   0.00000   0.01000   0.10900   0.18000   1.00000   0.00000   3.69740   0.00000   0.00000   1.00000 
  85  112 100.00000   1.00000  60.00000    0   0.00000   0.00690   0.05950   0.10000   1.00000   0.00000   1.66330   0.00000   0.00000   1.00000 
  85  112 100.00000   1.00000  60.00000    0   0.00000   0.00690   0.05950   0.10000   1.00000   0.00000   1.70230   0.00000   0.00000   1.00000 
  88   85 100.00000   1.00000  60.00000    0   0.00000   0.00160   0.02020   0.03000   1.00000   0.00000   9.76570   0.00000   0.00000   1.00000 
  88   85 100.00000   1.00000  60.00000    0   0.00000   0.00160   0.02020   0.03000   1.00000   0.00000   7.24670   0.00000   0.00000   1.00000 
  88  105 100.00000   1.00000  60.00000    0   0.00000   0.01120   0.09930   0.17000   1.00000   0.00000   1.80850   0.00000   0.00000   1.00000 
  88  105 100.00000   1.00000  60.00000    0   0.00000   0.01120   0.09930   0.17000   1.00000   0.00000   4.31850   0.00000   0.00000   1.00000 
  89   88 100.00000   1.00000  60.00000    0   0.00000   0.00050   0.02050   0.00000   1.00000   0.00000   1.75830   0.00000   0.00000   1.00000 
  89  105 100.00000   1.00000  60.00000    0   0.00000   0.08940   0.33630   0.00000   1.00000   0.00000   0.51450   0.00000   0.00000   1.00000 
  89  113 100.00000   1.00000  60.00000    0   0.00000   0.14560   0.41150   0.00000   1.00000   0.00000   0.74480   0.00000   0.00000   1.00000 
  90   89 100.00000   1.00000  60.00000    0   0.00000   0.00130   0.00490   0.00000   1.00000   0.00000   1.75840   0.00000   0.00000   1.00000 
  91  110 100.00000   1.00000  60.00000    0   0.00000   0.00170   0.01170   0.00000   1.00000   0.00000   5.17850   0.00000   0.00000   1.00000 
  92   91 100.00000   1.00000  60.00000    0   0.00000   0.00580   0.09280   0.00000   1.00000   0.00000   3.04030   0.00000   0.00000   1.00000 
  93   91 100.00000   1.00000  60.00000    0   0.00000   0.04210   0.29320   0.00000   1.00000   0.00000   0.94880   0.00000   0.00000   1.00000 
  94   93 100.00000   1.00000  60.00000    0   0.00000   0.00420   0.02830   0.00000   1.00000   0.00000   0.40880   0.00000   0.00000   1.00000 
  94  111 100.00000   1.00000  60.00000    0   0.00000   0.00490   0.03360   0.00000   1.00000   0.00000   0.79060   0.00000   0.00000   1.00000 
  95   91 100.00000   1.00000  60.00000    0   0.00000   0.02610   0.18440   0.00000   1.00000   0.00000   0.61650   0.00000   0.00000   1.00000 
  95   93 100.00000   1.00000  60.00000    0   0.00000   0.01870   0.12840   0.00000   1.00000   0.00000   1.49110   0.00000   0.00000   1.00000 
  96   95 100.00000   1.00000  60.00000    0   0.00000   0.01360   0.09550   0.00000   1.00000   0.00000   1.54410   0.00000   0.00000   1.00000 
  97   92 100.00000   1.00000  60.00000    0   0.00000   0.00080   0.03030   0.00000   1.00000   0.00000   4.87490   0.00000   0.00000   1.00000 
  97   96 100.00000   1.00000  60.00000    0   0.00000   0.01600   0.07670   0.00000   1.00000   0.00000   0.38600   0.00000   0.00000   1.00000 
  98   91 100.00000   1.00000  60.00000    0   0.00000   0.01200   0.08540   0.00000   1.00000   0.00000   9.83400   0.00000   0.00000   1.00000 
  99   98 100.00000   1.00000  60.00000    0   0.00000   0.00030   0.00920   0.00000   1.00000   0.00000   2.59640   0.00000   0.00000   1.00000 
 100   99 100.00000   1.00000  60.00000    0   0.00000   0.00100   0.07020   0.00000   1.00000   0.00000   4.28080   0.00000   0.00000   1.00000 
 102   54 100.00000   1.00000  60.00000    0   0.00000   0.00160   0.02480   0.06000   1.00000   0.00000   4.00240   0.00000   0.00000   1.00000 
 103   54 100.00000   1.00000  60.00000    0   0.00000   0.00160   0.02480   0.06000   1.00000   0.00000   4.64290   0.00000   0.00000   1.00000 
 104  101 100.00000   1.00000  60.00000    0   0.00000   0.00770   0.07730   0.00000   1.00000   0.00000   6.80200   0.00000   0.00000   1.00000 
 105  101 100.00000   1.00000  60.00000    0   0.00000   0.01880   0.14930   0.00000   1.00000   0.00000   0.41390   0.00000   0.00000   1.00000 
 106  104 100.00000   1.00000  60.00000    0   0.00000   0.00180   0.01800   0.00000   1.00000   0.00000   4.33360   0.00000   0.00000   1.00000 
 106  105 100.00000   1.00000  60.00000    0   0.00000   0.01650   0.11560   0.00000   1.00000   0.00000   0.94510   0.00000   0.00000   1.00000 
 107  101 100.00000   1.00000  60.00000    0   0.00000   0.00760   0.07510   0.00000   1.00000   0.00000   3.04870   0.00000   0.00000   1.00000 
 107  105 100.00000   1.00000  60.00000    0   0.00000   0.01150   0.11030   0.00000   1.00000   0.00000   0.62580   0.00000   0.00000   1.00000 
 108  101 100.00000   1.00000  60.00000    0   0.00000   0.00780   0.07720   0.00000   1.00000   0.00000   7.23020   0.00000   0.00000   1.00000 
 109  101 100.00000   1.00000  60.00000    0   0.00000   0.00780   0.07830   0.00000   1.00000   0.00000   4.84210   0.00000   0.00000   1.00000 
 110  101 100.00000   1.00000  60.00000    0   0.00000   0.04820   0.26360   0.00000   1.00000   0.00000   1.27230   0.00000   0.00000   1.00000 
 110  104 100.00000   1.00000  60.00000    0   0.00000   0.00060   0.00620   0.00000   1.00000   0.00000   2.51900   0.00000   0.00000   1.00000 
 110  107 100.00000   1.00000  60.00000    0   0.00000   0.00210   0.01860   0.00000   1.00000   0.00000   6.82180   0.00000   0.00000   1.00000 
 110  108 100.00000   1.00000  60.00000    0   0.00000   0.00260   0.01940   0.00000   1.00000   0.00000   1.78530   0.00000   0.00000   1.00000 
 110  109 100.00000   1.00000  60.00000    0   0.00000   0.00260   0.01940   0.00000   1.00000   0.00000   0.90480   0.00000   0.00000   1.00000 
 111  105 100.00000   1.00000  60.00000    0   0.00000   0.01310   0.08090   0.13000   1.00000   0.00000   2.16770   0.00000   0.00000   1.00000 
 111  108 100.00000   1.00000  60.00000    0   0.00000   0.00590   0.05770   0.00000   1.00000   0.00000   0.84390   0.00000   0.00000   1.00000 
 111  109 100.00000   1.00000  60.00000    0   0.00000   0.00590   0.05770   0.00000   1.00000   0.00000   2.05860   0.00000   0.00000   1.00000 
 112  105 100.00000   1.00000  60.00000    0   0.00000   0.00800   0.04970   0.30000   1.00000   0.00000   1.52910   0.00000   0.00000   1.00000 
 113  105 100.00000   1.00000  60.00000    0   0.00000   0.38240   0.94790   0.00000   1.00000   0.00000   0.06300   0.00000   0.00000   1.00000 
 113  112 100.00000   1.00000  60.00000    0   0.00000   0.01010   0.08730   0.00000   1.00000   0.00000   4.38180   0.00000   0.00000   1.00000 
 114   90 100.00000   1.00000  60.00000    0   0.00000   0.00240   0.01500   0.00000   1.00000   0.00000   1.18080   0.00000   0.00000   1.00000 
 115   87 100.00000   1.00000  60.00000    0   0.00000   0.00010   0.00180   0.02000   1.00000   0.00000   1.46840   0.00000   0.00000   1.00000 
 116   84 100.00000   1.00000  60.00000    0   0.00000   0.00150   0.10450   0.00000   1.00000   0.00000   1.03320   0.00000   0.00000   1.00000 
 116  115 100.00000   1.00000  60.00000    0   0.00000   0.07330   0.97990   0.00000   1.00000   0.00000   0.35860   0.00000   0.00000   1.00000 
 117  114 100.00000   1.00000  60.00000    0   0.00000   0.06630   0.36960   0.00000   1.00000   0.00000   0.01620   0.00000   0.00000   1.00000 
 117  115 100.00000   1.00000  60.00000    0   0.00000   0.00100   0.01140   0.00000   1.00000   0.00000   2.53530   0.00000   0.00000   1.00000 
 117  116 100.00000   1.00000  60.00000    0   0.00000   0.04740   0.26310   0.00000   1.00000   0.00000   0.23350   0.00000   0.00000   1.00000 
 118  115 100.00000   1.00000  60.00000    0   0.00000   0.16570   0.15510   0.00000   1.00000   0.00000   0.10820   0.00000   0.00000   1.00000 
 118  116 100.00000   1.00000  60.00000    0   0.00000   0.01170   0.07440   0.00000   1.00000   0.00000   3.04110   0.00000   0.00000   1.00000 
 118  117 100.00000   1.00000  60.00000    0   0.00000   0.00200   0.01990   0.00000   1.00000   0.00000   1.66080   0.00000   0.00000   1.00000 
 119  114 100.00000   1.00000  60.00000    0   0.00000   0.08760   0.25400   0.00000   1.00000   0.00000   0.08300   0.00000   0.00000   1.00000 
 119  115 100.00000   1.00000  60.00000    0   0.00000   0.00330   0.03920   0.00000   1.00000   0.00000   3.84910   0.00000   0.00000   1.00000 
 119  117 100.00000   1.00000  60.00000    0   0.00000   0.00170   0.01890   0.00000   1.00000   0.00000   1.42730   0.00000   0.00000   1.00000 
 120  116 100.00000   1.00000  60.00000    0   0.00000   0.23070   0.70410   0.00000   1.00000   0.00000   0.04530   0.00000   0.00000   1.00000 
 120  117 100.00000   1.00000  60.00000    0   0.00000   0.00670   0.07970   0.00000   1.00000   0.00000   2.92290   0.00000   0.00000   1.00000 
 120  118 100.00000   1.00000  60.00000    0   0.00000   0.00500   0.06290   0.00000   1.00000   0.00000   3.63030   0.00000   0.00000   1.00000 
 120  119 100.00000   1.00000  60.00000    0   0.00000   0.10650   0.34980   0.00000   1.00000   0.00000   0.56080   0.00000   0.00000   1.00000 
 121  114 100.00000   1.00000  60.00000    0   0.00000   0.00630   0.08020   0.00000   1.00000   0.00000   1.26620   0.00000   0.00000   1.00000 
 121  115 100.00000   1.00000  60.00000    0   0.00000   0.02200   0.29840   0.00000   1.00000   0.00000   0.06590   0.00000   0.00000   1.00000 
 121  116 100.00000   1.00000  60.00000    0   0.00000   0.09510   0.45760   0.00000   1.00000   0.00000   0.16690   0.00000   0.00000   1.00000 
 121  117 100.00000   1.00000  60.00000    0   0.00000   0.01500   0.08690   0.00000   1.00000   0.00000   1.50920   0.00000   0.00000   1.00000 
 121  118 100.00000   1.00000  60.00000    0   0.00000   0.13910   0.47980   0.00000   1.00000   0.00000   0.12700   0.00000   0.00000   1.00000 
 121  119 100.00000   1.00000  60.00000    0   0.00000   0.16360   0.58040   0.00000   1.00000   0.00000   0.26020   0.00000   0.00000   1.00000 
 122  116 100.00000   1.00000  60.00000    0   0.00000   0.00330   0.12870   0.00000   1.00000   0.00000   2.03550   0.00000   0.00000   1.00000 
 122  117 100.00000   1.00000  60.00000    0   0.00000   0.03830   0.08860   0.00000   1.00000   0.00000   1.13820   0.00000   0.00000   1.00000 
 122  118 100.00000   1.00000  60.00000    0   0.00000   0.09500   0.50710   0.00000   1.00000   0.00000   0.26180   0.00000   0.00000   1.00000 
 122  121 100.00000   1.00000  60.00000    0   0.00000   0.12500   0.46990   0.00000   1.00000   0.00000   0.05510   0.00000   0.00000   1.00000 
 123  118 100.00000   1.00000  60.00000    0   0.00000   0.00140   0.01740   0.00000   1.00000   0.00000  11.53630   0.00000   0.00000   1.00000 
 124   75 100.00000   1.00000  60.00000    0   0.00000   0.00070   0.01750   1.39000   1.00000   0.00000   2.71860   0.00000   0.00000   1.00000 
 125   81 100.00000   1.00000  60.00000    0   0.00000   0.00010   0.00110   0.00000   1.00000   0.00000   7.07180   0.00000   0.00000   1.00000 
 125  124 100.00000   1.00000  60.00000    0   0.00000   0.00250   0.07300   0.00000   1.00000   0.00000   2.42640   0.00000   0.00000   1.00000 
 126  124 100.00000   1.00000  60.00000    0   0.00000   0.00000   0.08390   0.00000   1.00000   0.00000   1.43740   0.00000   0.00000   1.00000 
 126  125 100.00000   1.00000  60.00000    0   0.00000   0.00000   0.04110   0.00000   1.00000   0.00000   1.05780   0.00000   0.00000   1.00000 
 127  124 100.00000   1.00000  60.00000    0   0.00000   0.00040   0.01050   0.72000   1.00000   0.00000  18.53460   0.00000   0.00000   1.00000 
 127  126 100.00000   1.00000  60.00000    0   0.00000   0.00000   0.25320   0.00000   1.00000   0.00000   2.58640   0.00000   0.00000   1.00000 
 128  124 100.00000   1.00000  60.00000    0   0.00000   0.00050   0.01170   0.84000   1.00000   0.00000   2.55290   0.00000   0.00000   1.00000 
 128  125 100.00000   1.00000  60.00000    0   0.00000   0.00490   0.26340   0.00000   1.00000   0.00000   0.48490   0.00000   0.00000   1.00000 
 128  126 100.00000   1.00000  60.00000    0   0.00000   0.00000   0.27410   0.00000   1.00000   0.00000   1.49170   0.00000   0.00000   1.00000 
 128  127 100.00000   1.00000  60.00000    0   0.00000   0.00000   0.13390   0.00000   1.00000   0.00000   1.18060   0.00000   0.00000   1.00000 
 129  128 100.00000   1.00000  60.00000    0   0.00000   0.00000   0.13810   0.00000   1.00000   0.00000   1.39220   0.00000   0.00000   1.00000 
 130  128 100.00000   1.00000  60.00000    0   0.00000   0.00070   0.01750   1.26000   1.00000   0.00000  19.71160   0.00000   0.00000   1.00000 
 130  129 100.00000   1.00000  60.00000    0   0.00000   0.00040   0.00850   0.60000   1.00000   0.00000  13.56630   0.00000   0.00000   1.00000 
 131  130 100.00000   1.00000  60.00000    0   0.00000   0.00020   0.00380   0.54000   1.00000   0.00000  14.48520   0.00000   0.00000   1.00000 
 132  127 100.00000   1.00000  60.00000    0   0.00000   0.00090   0.02210   1.62000   1.00000   0.00000  29.02870   0.00000   0.00000   1.00000 
 132  130 100.00000   1.00000  60.00000    0   0.00000   0.00070   0.01730   1.25000   1.00000   0.00000  10.85400   0.00000   0.00000   1.00000 
 133  131 100.00000   1.00000  60.00000    0   0.00000   0.00200   0.03900   2.77000   1.00000   0.00000   7.20300   0.00000   0.00000   1.00000 
 133  132 100.00000   1.00000  60.00000    0   0.00000   0.00120   0.02930   2.09000   1.00000   0.00000  26.72170   0.00000   0.00000   1.00000 
 134   66 100.00000   1.00000  60.00000    0   0.00000   0.00076   0.01141   1.16000   1.00000   0.00000  12.23790   0.00000   0.00000   1.00000 
 134  132 100.00000   1.00000  60.00000    0   0.00000   0.00235   0.04388   0.00000   1.00000   0.00000   7.10790   0.00000   0.00000   1.00000 
 135  115 100.00000   1.00000  60.00000    0   0.00000   0.00000   0.63090   0.00000   1.00000   0.00000   0.06330   0.00000   0.00000   1.00000 
 135  122 100.00000   1.00000  60.00000    0   0.00000   0.05730   0.75810   0.00000   1.00000   0.00000   0.06840   0.00000   0.00000   1.00000 
 135  131 100.00000   1.00000  60.00000    0   0.00000   0.00570   0.06990   0.00000   1.00000   0.00000  17.57410   0.00000   0.00000   1.00000 
 135  132 100.00000   1.00000  60.00000    0   0.00000   0.00120   0.02880   2.06000   1.00000   0.00000  29.79870   0.00000   0.00000   1.00000 
 135  133 100.00000   1.00000  60.00000    0   0.00000   0.00030   0.00630   0.45000   1.00000   0.00000   6.49310   0.00000   0.00000   1.00000 
 135  134 100.00000   1.00000  60.00000    0   0.00000   0.00460   0.06250   0.00000   1.00000   0.00000   8.23360   0.00000   0.00000   1.00000 
 136  134 100.00000   1.00000  60.00000    0   0.00000   0.00460   0.07820   0.79000   1.00000   0.00000   0.87020   0.00000   0.00000   1.00000 
 138   67 100.00000   1.00000  60.00000    0   0.00000   0.00630   0.04910   0.09000   1.00000   0.00000   2.72170   0.00000   0.00000   1.00000 
 138  126 100.00000   1.00000  60.00000    0   0.00000   0.00000   0.68050   0.00000   1.00000   0.00000   1.71610   0.00000   0.00000   1.00000 
 138  132 100.00000   1.00000  60.00000    0   0.00000   0.03310   0.42240   0.00000   1.00000   0.00000   0.59460   0.00000   0.00000   1.00000 
 138  137 100.00000   1.00000  60.00000    0   0.00000   0.25530   0.71800   0.00000   1.00000   0.00000   0.55670   0.00000   0.00000   1.00000 
...
];

Hvdc.con = [];

Bus.names = {...
      'bus1 ';'bus2 ';'bus3 ';'bus4 ';'bus5 ';
      'bus6 ';'bus7 ';'bus8 ';'bus9 ';'bus10 ';
      'bus11 ';'bus12 ';'bus13 ';'bus14 ';'bus15 ';
      'bus16 ';'bus17 ';'bus18 ';'bus19 ';'bus20 ';
      'bus21 ';'bus22 ';'bus23 ';'bus24 ';'bus25 ';
      'bus26 ';'bus27 ';'bus28 ';'bus29 ';'bus30 ';
      'bus31 ';'bus32 ';'bus33 ';'bus34 ';'bus35 ';
      'bus36 ';'bus37 ';'bus38 ';'bus39 ';'bus40 ';
      'bus41 ';'bus42 ';'bus43 ';'bus44 ';'bus45 ';
      'bus46 ';'bus47 ';'bus48 ';'bus49 ';'bus50 ';
      'bus51 ';'bus52 ';'bus53 ';'bus54 ';'bus55 ';
      'bus56 ';'bus57 ';'bus58 ';'bus59 ';'bus60 ';
      'bus61 ';'bus62 ';'bus63 ';'bus64 ';'bus65 ';
      'bus66 ';'bus67 ';'bus68 ';'bus69 ';'bus70 ';
      'bus71 ';'bus72 ';'bus73 ';'bus74 ';'bus75 ';
      'bus76 ';'bus77 ';'bus78 ';'bus79 ';'bus80 ';
      'bus81 ';'bus82 ';'bus83 ';'bus84 ';'bus85 ';
      'bus86 ';'bus87 ';'bus88 ';'bus89 ';'bus90 ';
      'bus91 ';'bus92 ';'bus93 ';'bus94 ';'bus95 ';
      'bus96 ';'bus97 ';'bus98 ';'bus99 ';'bus100 ';
      'bus101 ';'bus102 ';'bus103 ';'bus104 ';'bus105 ';
      'bus106 ';'bus107 ';'bus108 ';'bus109 ';'bus110 ';
      'bus111 ';'bus112 ';'bus113 ';'bus114 ';'bus115 ';
      'bus116 ';'bus117 ';'bus118 ';'bus119 ';'bus120 ';
      'bus121 ';'bus122 ';'bus123 ';'bus124 ';'bus125 ';
      'bus126 ';'bus127 ';'bus128 ';'bus129 ';'bus130 ';
      'bus131 ';'bus132 ';'bus133 ';'bus134 ';'bus135 ';
      'bus136 ';'bus137 ';'bus138 ';'bus139 ';'bus140 '};

%ZIP Data: 54
Pl.con = [...
   3      100        1       60 0.0008773  0.00417 0.009625  0.05419   0.1002  0.09123  0  1
   6      100        1       60   0.1892   0.4791   0.1805  0.06366   0.1528    0.197  0  1
   7      100        1       60   0.3355   0.3487   0.3106 -0.006955 -0.03937 -0.03894  0  1
   9      100        1       60  0.01208    0.314    0.176  0.01356  0.06647  0.01307  0  1
  11      100        1       60    1.861   0.2427   0.7993  0.04963  0.06248  0.03267  0  1
  12      100        1       60  0.04402   0.2503   0.5024   0.1088   0.1276  0.09922  0  1
  14      100        1       60   0.2647   0.1187   0.3388  0.09827  0.03946    0.117  0  1
  16      100        1       60      0.4   0.3209   0.3218  0.02467  0.07173  0.06503  0  1
  17      100        1       60   0.1017   0.3887   0.1483 -0.001404 -0.03409 -0.02987  0  1
  18      100        1       60    0.306   0.2161   0.3258  0.06659   0.1198   0.0398  0  1
  19      100        1       60   0.0129  0.04118  0.09607 -0.01652 -0.03668 -0.007914  0  1
  20      100        1       60   0.5105   0.2742   0.6915  0.02822   0.0179  0.02003  0  1
  30      100        1       60  0.07044  0.01648   0.0695 -0.05379 -0.01024 -0.03389  0  1
  31      100        1       60  0.04612   0.2143    0.274   0.1228  0.02826  0.05309  0  1
  34      100        1       60  0.04537   0.0699   0.6869  0.01693   0.1738   0.1006  0  1
  35      100        1       60   0.2714   0.7643   0.7874   0.2211   0.2828   0.1568  0  1
  36      100        1       60 0.0001254 0.001644 0.005779 0.001662 0.001809 0.001803  0  1
  41      100        1       60    0.236   0.1614  0.01799   0.0219  0.01577  0.01245  0  1
  42      100        1       60   0.2091   0.1068   0.1338 -0.004165 -0.05305 -0.00241  0  1
  45      100        1       60    0.174  0.03359   0.2019 -0.01154 -0.00589 -0.00138  0  1
  47      100        1       60     0.12   0.1142  0.04137  0.03049  0.03015  0.04214  0  1
  49      100        1       60   0.4719   0.3859   0.1838  0.07737  0.09134  0.05086  0  1
  51      100        1       60   0.1755   0.4374   0.3371  0.04778  0.02682  0.02541  0  1
  53      100        1       60     1.41    1.219   0.4998   0.2105   0.3201   0.2557  0  1
  55      100        1       60   0.5748   0.3943    2.149   0.1883  0.02331  0.09435  0  1
  56      100        1       60  0.05028  0.03831  0.05335  0.01429  0.01226  0.02034  0  1
  58      100        1       60  0.09602 0.002277  0.03269  0.02741   0.0241  0.03354  0  1
  59      100        1       60   0.2312  0.09122   0.2285  0.05126  0.02676   0.3847  0  1
  61      100        1       60 0.005129 0.001457   0.3078 -0.0003632 -0.004572 -0.002071  0  1
  64      100        1       60   0.4845   0.1196   0.1526  0.04715  0.02678  0.03129  0  1
  68      100        1       60  0.02658 0.004462 0.007615 0.0006285 0.001168 0.002151  0  1
  71      100        1       60   0.3187   0.0932  0.05359 -0.05974 -0.08334 -0.007628  0  1
  78      100        1       60    1.581   0.2802    1.532   0.4116   0.3673   0.2511  0  1
  80      100        1       60      0.5   0.1372   0.9261 -0.03644  -0.1548 -0.08118  0  1
  83      100        1       60 0.0007144 0.001576 0.002155 0.0001631 0.0002685 0.0002612  0  1
  86      100        1       60 0.005065   0.0453  0.03661  0.01617   0.0214  0.01248  0  1
  88      100        1       60   0.0245  0.04533 0.008483  0.01641  0.01323  0.01335  0  1
  89      100        1       60   0.1235  0.04663  0.07597  0.05312  0.01494   0.1353  0  1
  90      100        1       60   0.2108   0.1334  0.05218   0.0986  0.03961  0.06733  0  1
  91      100        1       60   0.4675    2.119 0.006753    0.105   0.1866   0.5399  0  1
  92      100        1       60  0.01326  0.01049  0.00634   0.4345   0.5741   0.2143  0  1
  97      100        1       60   0.5576   0.2857   0.7545  -0.1815  -0.4712  -0.4807  0  1
 101      100        1       60   0.0631  0.02522   0.2306 0.009237  0.05005  0.05652  0  1
 104      100        1       60   0.2436   0.1133    0.141  0.08808  0.06314  0.08589  0  1
 110      100        1       60   0.6486    0.191   0.4823  0.01656  0.05273   0.1319  0  1
 111      100        1       60    1.071  0.06348   0.6988  0.03458  0.04784  0.02804  0  1
 117      100        1       60   0.4024   0.4078   0.2143 0.001777   0.1476    0.131  0  1
 118      100        1       60   0.3409   0.2238   0.3958  0.08847  0.09865  0.05502  0  1
 119      100        1       60   0.1195   0.2543   0.2017   0.1075  0.03475 0.009967  0  1
 123      100        1       60  0.02707  0.02458  0.01857 0.002059 0.0007756  0.00517  0  1
 124      100        1       60   0.3116   0.0043   0.4374 -0.03622 -0.06778 -0.07359  0  1
 125      100        1       60   0.1396   0.1713   0.1626 -0.00168 -0.001725 -0.0005717  0  1
 136      100        1       60   0.2464   0.2558  0.04464  0.01982    0.306   0.1396  0  1
 138      100        1       60  0.08274   0.1454   0.1137    0.139  0.01709   0.2098  0  1
];

%Induction motor Data: 54
Ind.con = [...
   3      100        1       60    3    0   0.5761    3.832   0.2711    2.072        0        0    43.87    1.816        0  0.07587 -0.03794        0  0  1
   6      100        1       60    3    0  0.06464   0.3441  0.03271   0.3227        0        0    15.61    1.677        0    1.063  -0.5316        0  0  1
   7      100        1       60    3    0  0.02102   0.1807  0.02766   0.1774        0        0    7.612    1.197        0    2.183   -1.091        0  0  1
   9      100        1       60    3    0  0.07862   0.4485  0.06351   0.5499        0        0    20.22    1.721        0   0.4256  -0.2128        0  0  1
  11      100        1       60    3    0  0.01068  0.07366  0.01136  0.08012        0        0    2.044    1.848        0    4.119   -2.059        0  0  1
  12      100        1       60    3    0  0.06564   0.3244   0.0305   0.3276        0        0    11.45    1.144        0    1.091  -0.5454        0  0  1
  14      100        1       60    3    0  0.03363   0.1784  0.02042    0.302        0        0    10.73    1.001        0    1.257  -0.6286        0  0  1
  16      100        1       60    3    0  0.08208   0.4459  0.06413   0.2776        0        0    13.83    1.395        0   0.9908  -0.4954        0  0  1
  17      100        1       60    3    0  0.06935   0.2361   0.0538   0.4031        0        0     18.4    1.853        0    1.173  -0.5866        0  0  1
  18      100        1       60    3    0  0.06048   0.3751  0.07465    0.405        0        0    19.79    1.553        0   0.7182  -0.3591        0  0  1
  19      100        1       60    3    0  0.01914   0.1344 0.008472  0.09037        0        0    3.648    1.066        0     2.94    -1.47        0  0  1
  20      100        1       60    3    0  0.05107   0.2413  0.02214   0.2739        0        0    8.794    1.602        0    1.122  -0.5612        0  0  1
  30      100        1       60    3    0 0.005971  0.02924 0.002035  0.02552        0        0    1.226    1.931        0    5.277   -2.638        0  0  1
  31      100        1       60    3    0  0.03804   0.2434  0.02638   0.1653        0        0    5.683    1.314        0    1.155  -0.5774        0  0  1
  34      100        1       60    3    0   0.1013   0.6885  0.04886   0.4294        0        0    11.57     1.31        0    0.501  -0.2505        0  0  1
  35      100        1       60    3    0  0.01138  0.09808  0.01449  0.05777        0        0    1.842   0.9667        0    3.287   -1.643        0  0  1
  36      100        1       60    3    0   0.6273    3.107   0.2828    4.522        0        0    186.1   0.6069        0  0.05638 -0.02819        0  0  1
  41      100        1       60    3    0  0.01769  0.07529 0.005856   0.1008        0        0    3.705    0.773        0    4.228   -2.114        0  0  1
  42      100        1       60    3    0  0.04953   0.2724  0.03055   0.1674        0        0    7.149   0.6395        0    1.572   -0.786        0  0  1
  45      100        1       60    3    0  0.02916   0.1525  0.02441   0.1363        0        0    6.797    1.195        0    2.446   -1.223        0  0  1
  47      100        1       60    3    0 0.004248  0.04144 0.004292  0.04125        0        0    2.016    0.514        0    5.928   -2.964        0  0  1
  49      100        1       60    3    0  0.07005   0.3828  0.03064   0.3343        0        0    12.05    1.873        0   0.6719   -0.336        0  0  1
  51      100        1       60    3    0  0.03936   0.2897  0.02621   0.1965        0        0    9.612    1.464        0    1.511  -0.7557        0  0  1
  53      100        1       60    3    0  0.03125   0.1968  0.01732   0.1894        0        0    4.445   0.5021        0    1.944  -0.9718        0  0  1
  55      100        1       60    3    0  0.01092  0.07696  0.01234   0.1105        0        0     2.38   0.5456        0    3.455   -1.727        0  0  1
  56      100        1       60    3    0  0.04204   0.1899   0.0367   0.2007        0        0    5.845   0.8127        0   0.9845  -0.4923        0  0  1
  58      100        1       60    3    0  0.04665    0.306  0.04748   0.3337        0        0    12.48    1.182        0   0.9155  -0.4578        0  0  1
  59      100        1       60    3    0 0.002179  0.02069 0.001203  0.01165        0        0   0.4185   0.6909        0    10.17   -5.085        0  0  1
  61      100        1       60    3    0  0.02993   0.2162   0.0232   0.1872        0        0    8.803    0.513        0    1.254  -0.6268        0  0  1
...